Input_data/circuit/LVTest_VLN.Txt

SYMMETRICAL COMPONENT VOLTAGES BY BUS (for 3-phase buses)

Bus        Mag:   V1 (kV)    p.u.     V2 (kV)   %V2/V1    V0 (kV)    %V0/V1

sourcebus  0.005356  0.0008434    0.00029      5.414 3.835E-016 7.16E-012
1         0.0007992   0.003327  4.327E-005      5.414 6.221E-005     7.784
2         0.0008046    0.00335  4.356E-005      5.414 6.22E-005     7.731
3         0.0008052   0.003352  4.359E-005      5.414 6.22E-005     7.725
4         0.0008057   0.003355  4.362E-005      5.414 6.22E-005      7.72
5         0.0008062   0.003356  4.365E-005      5.414 6.22E-005     7.716
6         0.0008069    0.00336  4.369E-005      5.414 6.221E-005     7.709
7         0.0008569   0.003568  4.64E-005      5.414 6.35E-005      7.41
8         0.0008592   0.003577  4.652E-005      5.414 6.361E-005     7.403
9         0.0008611   0.003585  4.662E-005      5.414 6.37E-005     7.398
10        0.0008627   0.003592  4.671E-005      5.414 6.379E-005     7.394
11        0.0008639   0.003597  4.678E-005      5.414 6.385E-005     7.391
12        0.0008651   0.003602  4.684E-005      5.414 6.392E-005     7.388
13        0.0008658   0.003605  4.688E-005      5.414 6.396E-005     7.387
14        0.0008676   0.003612  4.697E-005      5.414 6.406E-005     7.383
15        0.0008819   0.003672  4.775E-005      5.414 6.496E-005     7.365
16        0.0008819   0.003672  4.775E-005      5.414 6.496E-005     7.365
17        0.0008994   0.003745  4.87E-005      5.414 6.627E-005     7.368
18        0.0008819   0.003672  4.775E-005      5.414 6.496E-005     7.365
19        0.0009006    0.00375  4.876E-005      5.414 6.637E-005     7.369
20        0.0008819   0.003672  4.775E-005      5.414 6.496E-005     7.365
21         0.000902   0.003755  4.883E-005      5.414 6.648E-005     7.371
22        0.0008819   0.003672  4.775E-005      5.414 6.496E-005     7.365
23        0.0009042   0.003765  4.895E-005      5.414 6.667E-005     7.373
24        0.0008819   0.003672  4.775E-005      5.414 6.496E-005     7.365
25        0.0009082   0.003781  4.917E-005      5.414 6.701E-005     7.379
26        0.0008819   0.003672  4.775E-005      5.414 6.496E-005     7.365
27        0.0009095   0.003787  4.976E-005      5.471 6.898E-005     7.585
28        0.0009568   0.003984  5.069E-005      5.298 6.825E-005     7.132
29        0.0008819   0.003672  4.775E-005      5.414 6.496E-005     7.365
30        0.0009096   0.003787  4.977E-005      5.472 6.921E-005     7.609
31        0.0009097   0.003788  4.992E-005      5.487 6.928E-005     7.616
32        0.0009698   0.004038  5.11E-005      5.268 6.877E-005     7.091
33        0.0008819   0.003672  4.775E-005      5.414 6.496E-005     7.365
34        0.0009098   0.003788  4.98E-005      5.473 6.975E-005     7.666
35        0.0009097   0.003788  4.992E-005      5.488 6.929E-005     7.617
36        0.0009715   0.004045   5.2E-005      5.353 6.773E-005     6.971
37         0.001008   0.004195  5.211E-005      5.171 7.245E-005      7.19
38        0.0008819   0.003672  4.775E-005      5.414 6.496E-005     7.365
39        0.0009097   0.003788  4.993E-005      5.489 6.931E-005     7.619
40        0.0009716   0.004045  5.203E-005      5.356 6.769E-005     6.967
41        0.0009718   0.004046  5.215E-005      5.366 6.757E-005     6.953
42         0.001034   0.004305  5.283E-005      5.109 7.512E-005     7.265
43         0.001008   0.004195  5.211E-005      5.171 7.245E-005      7.19
44        0.0008819   0.003672  4.775E-005      5.414 6.496E-005     7.365
45        0.0009097   0.003788  4.994E-005       5.49 6.933E-005     7.621
46        0.0009716   0.004045  5.205E-005      5.357 6.767E-005     6.965
47        0.0009724   0.004049  5.251E-005        5.4 6.719E-005     6.909
48         0.001054   0.004388  5.338E-005      5.065 7.72E-005     7.325
49         0.001008   0.004195  5.211E-005      5.171 7.245E-005      7.19
50        0.0008819   0.003672  4.775E-005      5.414 6.496E-005     7.365
51        0.0009098   0.003788  4.997E-005      5.492 6.937E-005     7.625
52        0.0009716   0.004046  5.206E-005      5.358 6.766E-005     6.963
53         0.001057     0.0044  5.347E-005      5.059 7.75E-005     7.333
54         0.001054   0.004388  5.338E-005      5.065 7.72E-005     7.325
55         0.001008   0.004195  5.211E-005      5.171 7.245E-005      7.19
56        0.0008819   0.003672  4.775E-005      5.414 6.496E-005     7.365
57        0.0009098   0.003788  4.999E-005      5.494 6.941E-005     7.629
58        0.0009717   0.004046  5.208E-005       5.36 6.764E-005     6.961
59          0.00107   0.004455  5.383E-005      5.031 7.889E-005     7.373
60         0.001054   0.004388  5.338E-005      5.065 7.72E-005     7.325
61         0.001008   0.004195  5.211E-005      5.171 7.245E-005      7.19
62        0.0008819   0.003672  4.775E-005      5.414 6.496E-005     7.365
63        0.0009099   0.003789  5.009E-005      5.505 6.96E-005     7.649
64        0.0009717   0.004046  5.209E-005      5.361 6.763E-005      6.96
65         0.001072   0.004465  5.381E-005      5.017 7.893E-005     7.359
66         0.001072   0.004465  5.559E-005      5.184 8.201E-005     7.647
67         0.001054   0.004388  5.338E-005      5.065 7.72E-005     7.325
68         0.001008   0.004195  5.211E-005      5.171 7.245E-005      7.19
69        0.0008819   0.003672  4.775E-005      5.414 6.496E-005     7.365
70        0.0009104   0.003791  5.044E-005      5.541 7.027E-005     7.718
71        0.0009717   0.004046  5.211E-005      5.362 6.761E-005     6.958
72         0.001103   0.004591  5.351E-005      4.853 7.944E-005     7.205
73         0.001073   0.004468  5.604E-005      5.222 8.278E-005     7.714
74         0.001073   0.004468  5.604E-005      5.222 8.278E-005     7.714
75         0.001054   0.004388  5.338E-005      5.065 7.72E-005     7.325
76         0.001008   0.004195  5.211E-005      5.171 7.245E-005      7.19
77        0.0008819   0.003672  4.775E-005      5.414 6.496E-005     7.365
78        0.0009719   0.004046  5.22E-005      5.371 6.752E-005     6.947
79         0.001113   0.004634  5.34E-005      4.798 7.965E-005     7.156
80         0.001054   0.004388  5.338E-005      5.065 7.72E-005     7.325
81         0.001008   0.004195  5.211E-005      5.171 7.245E-005      7.19
82        0.0008819   0.003672  4.775E-005      5.414 6.496E-005     7.365
83        0.0009725   0.004049  5.254E-005      5.402 6.716E-005     6.906
84         0.001115   0.004644  5.338E-005      4.786 7.97E-005     7.146
85         0.001054   0.004388  5.338E-005      5.065 7.72E-005     7.325
86         0.001008   0.004195  5.211E-005      5.171 7.245E-005      7.19
87        0.0008819   0.003672  4.775E-005      5.414 6.496E-005     7.365
88          0.00112   0.004663  5.333E-005      4.762 7.98E-005     7.125
89         0.001054   0.004388  5.338E-005      5.065 7.72E-005     7.325
90         0.001008   0.004195  5.211E-005      5.171 7.245E-005      7.19
91        0.0008819   0.003672  4.775E-005      5.414 6.496E-005     7.365
92         0.001124   0.004681  5.329E-005       4.74 7.99E-005     7.106
93         0.001008   0.004195  5.211E-005      5.171 7.245E-005      7.19
94        0.0008819   0.003672  4.775E-005      5.414 6.496E-005     7.365
95         0.001127   0.004692  5.327E-005      4.727 7.996E-005     7.095
96         0.001008   0.004195  5.211E-005      5.171 7.245E-005      7.19
97        0.0008819   0.003672  4.775E-005      5.414 6.496E-005     7.365
98         0.001129   0.004699  5.325E-005      4.718    8E-005     7.088
99         0.001008   0.004195  5.211E-005      5.171 7.245E-005      7.19
100       0.0008819   0.003672  4.775E-005      5.414 6.496E-005     7.365
101        0.001131   0.004709  5.323E-005      4.706 8.005E-005     7.078
102        0.001008   0.004195  5.211E-005      5.171 7.245E-005      7.19
103       0.0008819   0.003672  4.775E-005      5.414 6.496E-005     7.365
104        0.001131   0.004709  5.318E-005      4.702 8.003E-005     7.075
105        0.001132   0.004714  5.325E-005      4.702 8.013E-005     7.077
106        0.001008   0.004195  5.211E-005      5.171 7.245E-005      7.19
107        0.001131    0.00471  5.313E-005      4.696 8.001E-005     7.072
108        0.001133   0.004718  5.326E-005        4.7 8.018E-005     7.076
109        0.001008   0.004195  5.211E-005      5.171 7.245E-005      7.19
110        0.001132   0.004711  5.307E-005       4.69 7.998E-005     7.068
111        0.001163   0.004842  5.374E-005      4.621 8.204E-005     7.054
112        0.001008   0.004195  5.211E-005      5.171 7.245E-005      7.19
113        0.001132   0.004712  5.297E-005       4.68 7.993E-005     7.062
114        0.001166   0.004855  5.379E-005      4.613 8.223E-005     7.052
115        0.001008   0.004195  5.211E-005      5.171 7.245E-005      7.19
116        0.001132   0.004714  5.285E-005      4.668 7.988E-005     7.055
117        0.001166   0.004857  5.36E-005      4.595 8.218E-005     7.045
118        0.001179   0.004908  5.488E-005      4.655 8.314E-005     7.052
119        0.001008   0.004195  5.211E-005      5.171 7.245E-005      7.19
120        0.001133   0.004715  5.277E-005      4.659 7.984E-005     7.049
121        0.001166   0.004857  5.36E-005      4.595 8.218E-005     7.045
122        0.001167   0.004858  5.351E-005      4.587 8.215E-005     7.042
123        0.001202   0.005005  5.689E-005      4.732 8.478E-005     7.052
124        0.001008   0.004195  5.211E-005      5.171 7.245E-005      7.19
125        0.001133   0.004717  5.264E-005      4.646 7.978E-005     7.042
126        0.001166   0.004857  5.36E-005      4.595 8.218E-005     7.045
127        0.001168   0.004862  5.308E-005      4.546 8.204E-005     7.025
128        0.001213   0.005049  5.781E-005      4.767 8.552E-005     7.052
129        0.001008   0.004195  5.211E-005      5.171 7.245E-005      7.19
130        0.001133   0.004719  5.251E-005      4.633 7.972E-005     7.034
131        0.001166   0.004857  5.36E-005      4.595 8.218E-005     7.045
132        0.001168   0.004863  5.306E-005      4.543 8.267E-005     7.078
133         0.00117   0.004873  5.15E-005        4.4 8.114E-005     6.933
134        0.001216   0.005062  5.809E-005      4.778 8.574E-005     7.052
135        0.001008   0.004195  5.211E-005      5.171 7.245E-005      7.19
136        0.001134   0.004721  5.239E-005       4.62 7.966E-005     7.026
137        0.001166   0.004857  5.36E-005      4.595 8.218E-005     7.045
138        0.001168   0.004863  5.305E-005      4.542 8.272E-005     7.082
139        0.001172    0.00488  5.032E-005      4.293 8.047E-005     6.865
140        0.001219   0.005077  5.84E-005       4.79 8.599E-005     7.053
141        0.001008   0.004195  5.211E-005      5.171 7.245E-005      7.19
142        0.001135   0.004724  5.218E-005      4.599 7.957E-005     7.013
143        0.001166   0.004857  5.36E-005      4.595 8.218E-005     7.045
144        0.001168   0.004863  5.305E-005      4.542 8.277E-005     7.087
145        0.001173   0.004886  4.953E-005      4.221 8.002E-005      6.82
146        0.001223   0.005091  5.87E-005      4.801 8.623E-005     7.053
147        0.001008   0.004195  5.211E-005      5.171 7.245E-005      7.19
148        0.001138   0.004738  5.123E-005      4.502 7.912E-005     6.953
149        0.001166   0.004857  5.36E-005      4.595 8.218E-005     7.045
150        0.001168   0.004863  5.305E-005      4.542 8.282E-005      7.09
151        0.001174   0.004888  4.897E-005      4.171 7.984E-005       6.8
152        0.001175   0.004892  5.015E-005      4.268 7.962E-005     6.776
153        0.001227   0.005107  5.905E-005      4.814 8.65E-005     7.053
154        0.001008   0.004195  5.211E-005      5.171 7.245E-005      7.19
155        0.001139   0.004741  5.103E-005      4.481 7.902E-005      6.94
156        0.001166   0.004857  5.36E-005      4.595 8.218E-005     7.045
157        0.001168   0.004863  5.305E-005      4.542 8.288E-005     7.096
158        0.001176   0.004895  4.747E-005      4.037 7.938E-005     6.752
159        0.001175   0.004892  5.019E-005      4.271 7.959E-005     6.774
160        0.001228   0.005111  5.915E-005      4.818 8.658E-005     7.053
161        0.001008   0.004195  5.211E-005      5.171 7.245E-005      7.19
162         0.00114   0.004749  5.187E-005      4.548 7.849E-005     6.882
163        0.001141   0.004751  5.039E-005      4.416 7.887E-005     6.912
164        0.001166   0.004857  5.36E-005      4.595 8.218E-005     7.045
165        0.001168   0.004863  5.305E-005      4.541 8.296E-005     7.102
166        0.001176   0.004897  4.695E-005      3.991 7.924E-005     6.736
167        0.001175   0.004893  5.022E-005      4.274 7.957E-005     6.771
168        0.001234   0.005138  5.972E-005       4.84 8.703E-005     7.053
169        0.001008   0.004195  5.211E-005      5.171 7.245E-005      7.19
170        0.001141    0.00475  5.203E-005      4.561 7.84E-005     6.872
171        0.001144   0.004764  4.954E-005       4.33 7.866E-005     6.875
172        0.001166   0.004857  5.36E-005      4.595 8.218E-005     7.045
173        0.001168   0.004864  5.305E-005      4.541 8.302E-005     7.107
174        0.001176   0.004897  4.695E-005      3.991 7.924E-005     6.736
175        0.001177   0.004901  4.561E-005      3.874 7.867E-005     6.683
176        0.001175   0.004893  5.024E-005      4.275 7.957E-005      6.77
177        0.001238   0.005152  6.005E-005      4.852 8.729E-005     7.053
178        0.001142   0.004753  5.238E-005      4.588 7.822E-005     6.852
179        0.001144   0.004765  4.959E-005      4.333 7.868E-005     6.875
180        0.001145   0.004766  4.878E-005      4.262 7.83E-005     6.841
181        0.001166   0.004857  5.36E-005      4.595 8.218E-005     7.045
182        0.001168   0.004864  5.304E-005      4.541 8.309E-005     7.113
183        0.001176   0.004897  4.695E-005      3.991 7.924E-005     6.736
184        0.001177   0.004902  4.546E-005      3.862 7.861E-005     6.677
185        0.001175   0.004893  5.027E-005      4.277 7.955E-005     6.768
186         0.00124   0.005164  6.029E-005      4.861 8.748E-005     7.054
187        0.001146    0.00477  4.981E-005      4.347 7.878E-005     6.877
188        0.001147   0.004775  4.567E-005      3.982 7.693E-005     6.707
189        0.001166   0.004857  5.36E-005      4.595 8.218E-005     7.045
190        0.001168   0.004864  5.304E-005      4.541 8.315E-005     7.118
191        0.001176   0.004897  4.695E-005      3.991 7.924E-005     6.736
192        0.001176   0.004897  4.695E-005      3.991 7.924E-005     6.736
193        0.001177   0.004902  4.532E-005      3.849 7.855E-005     6.672
194        0.001175   0.004894  5.035E-005      4.284 7.95E-005     6.763
195        0.001243   0.005173  6.051E-005       4.87 8.765E-005     7.054
196        0.001148   0.004779  5.021E-005      4.375 7.898E-005     6.881
197        0.001147   0.004776  4.539E-005      3.957 7.691E-005     6.705
198        0.001147   0.004776  4.548E-005      3.964 7.679E-005     6.694
199        0.001166   0.004857  5.36E-005      4.595 8.218E-005     7.045
200        0.001168   0.004864  5.304E-005       4.54 8.322E-005     7.124
...
